[General]
network = Network
sim-time-limit = 200s

Network.nodeTx.gen.generationInterval=exponential(0.1)
Network.**.serviceTime=exponential(0.001)
Network.nodeTx.gen.packetByteSize = 12500
Network.queuei.bufferSize = 200
Network.queuev.bufferSize = 200
Network.nodeRx.traRx.bufferSize = 20
Network.nodeTx.traTx.bufferSize = 200